%chk=OPT_B3LYP_LANL2TZF_def2SVP_ONL_B3LYP_CCpvTZPP_def2SVP_IEFPCM.chk
%mem=100Gb
%nproc=32
#p B3LYP/gen gfinput pseudo=read Integral(Grid=UltraFine,Acc2E=12) scf=maxcycle=200 Polar=(DCSHG) CPHF=RdFreq scrf=(iefpcm,read,solvent=n,n-DiMethylFormamide)

Primeira Hiperpolarizabilidade

0 1
Pt       1.0080980000     -0.0025540000     -0.0235640000                 
C       -1.0407780000      0.0066670000     -0.0737250000                 
N        1.3518720000     -2.0305880000     -0.0218510000                 
N        1.3719450000      2.0222460000     -0.0087140000                 
C        0.4287560000      2.9753990000     -0.0466020000                 
C        0.3987490000     -2.9736310000     -0.0636760000                 
C        2.7090590000      2.3704960000      0.0422860000                 
C        2.6854370000     -2.3928710000      0.0221480000                 
C        3.6128020000     -1.2583290000      0.0630320000                 
C        3.6250380000      1.2264840000      0.0741590000                 
C        5.0268870000      1.1846370000      0.1233140000                 
C        3.0723370000      3.7249560000      0.0587980000                 
C        2.0923450000      4.7097260000      0.0204170000                 
C        0.7449800000      4.3308390000     -0.0354510000                 
C        5.0149890000     -1.2306470000      0.1121940000                 
C        5.7236020000     -0.0265750000      0.1426580000                 
C        3.0349240000     -3.7511510000      0.0202080000                 
C        2.0447540000     -4.7254340000     -0.0249160000                 
H        4.0867550000     -4.0288990000      0.0519620000                 
C        0.7009420000     -4.3321870000     -0.0661800000                 
C        2.9585480000     -0.0125370000      0.0458840000                 
F        5.7212310000     -2.3699220000      0.1303920000                 
F        5.7443060000      2.3167180000      0.1522610000                 
H       -0.6280750000     -2.6082960000     -0.0985270000                 
C       -0.3984570000     -5.3622800000     -0.0868170000                 
H        2.3178680000     -5.7825060000     -0.0308330000                 
H       -0.6018770000      2.6210140000     -0.0832780000                 
C       -0.3410580000      5.3727710000     -0.1080140000                 
H        4.1266370000      3.9913400000      0.1029230000                 
H        2.3757440000      5.7639000000      0.0374570000                 
C       -2.2773880000      0.0100470000     -0.0606420000                 
C       -3.7078030000      0.0138890000     -0.0281940000                 
C       -4.4475230000      1.2181020000      0.0239990000                 
C       -4.4555800000     -1.1864830000     -0.0345840000                 
C       -5.8370910000      1.2295090000      0.0719270000                 
C       -5.8452350000     -1.1908520000      0.0125700000                 
C       -6.5854910000      0.0211570000      0.0702010000                 
N       -7.9618090000      0.0245300000      0.1227950000                 
H        6.8130070000     -0.0321260000      0.1803430000                 
F       -0.1641210000      6.3290150000      0.8211110000                 
F       -1.5619730000      4.8457880000      0.0784630000                 
F       -0.3511580000      5.9921340000     -1.3035740000                 
F       -1.6000010000     -4.8158540000     -0.3335420000                 
F       -0.4875750000     -6.0108890000      1.0897080000                 
F       -0.1759670000     -6.2973500000     -1.0277870000                 
H       -3.9105270000      2.1703660000      0.0298390000                 
H       -6.3468240000      2.1915000000      0.1129780000                 
H       -6.3615740000     -2.1502000000      0.0059560000                 
H       -3.9250140000     -2.1414780000     -0.0757180000                 
C       -8.6853820000      1.2805140000      0.1859560000                 
C       -8.6938440000     -1.2281450000      0.1241890000                 
H       -8.4916680000      1.9177460000     -0.6962290000                 
H       -8.4224040000      1.8687590000      1.0843160000                 
H       -9.7626690000      1.0779620000      0.2221940000                 
H       -8.4324840000     -1.8627180000      0.9908760000                 
H       -8.5067370000     -1.8212190000     -0.7896890000                 
H       -9.7696300000     -1.0204690000      0.1737300000                                                                                                         

1907nm

H     0
S    3   1.00
     13.0107010              0.19682158D-01
      1.9622572              0.13796524
      0.44453796             0.47831935
S    1   1.00
      0.12194962             1.0000000
P    1   1.00
      0.8000000              1.0000000
****
C     0
S    5   1.00
   1238.4016938              0.54568832082D-02
    186.29004992             0.40638409211D-01
     42.251176346            0.18025593888
     11.676557932            0.46315121755
      3.5930506482           0.44087173314
S    1   1.00
      0.40245147363          1.0000000
S    1   1.00
      0.13090182668          1.0000000
P    3   1.00
      9.4680970621           0.38387871728D-01
      2.0103545142           0.21117025112
      0.54771004707          0.51328172114
P    1   1.00
      0.15268613795          1.0000000
D    1   1.00
      0.8000000              1.0000000
****
N     0
S    5   1.00
   1712.8415853             -0.53934125305D-02
    257.64812677            -0.40221581118D-01
     58.458245853           -0.17931144990
     16.198367905           -0.46376317823
      5.0052600809          -0.44171422662
S    1   1.00
      0.58731856571          1.0000000
S    1   1.00
      0.18764592253          1.0000000
P    3   1.00
     13.571470233           -0.40072398852D-01
      2.9257372874          -0.21807045028
      0.79927750754         -0.51294466049
P    1   1.00
      0.21954348034          1.0000000
D    1   1.00
      1.0000000              1.0000000
****
F     0
S    5   1.00
   2894.8325990             -0.53408255515D-02
    435.41939120            -0.39904258866D-01
     98.843328866           -0.17912768038
     27.485198001           -0.46758090825
      8.5405498171          -0.44653131020
S    1   1.00
      1.0654578038           1.0000000
S    1   1.00
      0.33247346748          1.0000000
P    3   1.00
     22.696633924           -0.45212874436D-01
      4.9872339257          -0.23754317067
      1.3491613954          -0.51287353587
P    1   1.00
      0.34829881977          1.0000000
D    1   1.00
      1.4000000              1.0000000
****
Pt     0
S    9   1.00
     36.0064000              0.0156030
     22.4991000             -0.1396000
     14.0609000              0.3994690
      8.7816100             -0.1277440
      4.9923800             -0.7514510
      1.3838500              0.8633270
      0.6616170              0.4975940
      0.2048820              0.0347580
      0.0922300             -0.0065890
S    9   1.00
     36.0064000              0.0070370
     22.4991000              0.0105250
     14.0609000             -0.0854980
      8.7816100             -0.1765590
      4.9923800              0.8567070
      1.3838500             -1.8442100
      0.6616170              0.6011560
      0.2048820              1.9822930
      0.0922300             -1.1764800
S    9   1.00
     36.0064000             -0.0114450
     22.4991000              0.1220440
     14.0609000             -0.3759060
      8.7816100              0.0553880
      4.9923800              1.1335870
      1.3838500             -4.2149190
      0.6616170              4.8759410
      0.2048820             -2.1659360
      0.0922300             -0.4268040
S    9   1.00
     36.0064000             -0.0056780
     22.4991000              0.0507550
     14.0609000             -0.1500300
      8.7816100              0.0639820
      4.9923800              0.2704110
      1.3838500             -0.4346570
      0.6616170             -0.3372900
      0.2048820              0.2814460
      0.0922300              0.6455790
S    1   1.00
      0.0392640              1.0000000
P    8   1.00
     21.5986000             -0.0125150
     13.5160000              0.0715700
      5.9203700             -0.2872760
      1.6412600              0.5154190
      0.8311310              0.4804610
      0.4084300              0.1679960
      0.1754270              0.0158600
      0.0726850              0.0007950
P    8   1.00
     21.5986000              0.0067690
     13.5160000             -0.0429400
      5.9203700              0.1894550
      1.6412600             -0.4606470
      0.8311310             -0.4463350
      0.4084300              0.4896840
      0.1754270              0.6825880
      0.0726850              0.1279470
P    8   1.00
     21.5986000              0.0116510
     13.5160000             -0.0715220
      5.9203700              0.3259640
      1.6412600             -1.2148310
      0.8311310              0.1587270
      0.4084300              1.5953330
      0.1754270             -0.7779330
      0.0726850             -0.5304420
P    8   1.00
     21.5986000              0.0029600
     13.5160000             -0.0191100
      5.9203700              0.0838980
      1.6412600             -0.1830090
      0.8311310             -0.1878840
      0.4084300             -0.0017870
      0.1754270              0.3606710
      0.0726850              0.5449210
P    1   1.00
      0.0297610              1.0000000
D    7   1.00
     72.7562000              0.0000520
     10.4742000              0.0126260
      6.2509000             -0.0632410
      1.8018500              0.2396470
      0.8884540              0.3876720
      0.4156650              0.3517440
      0.1830800              0.2052900
D    7   1.00
     72.7562000             -0.0000260
     10.4742000              0.0271890
      6.2509000             -0.1307380
      1.8018500              0.8378570
      0.8884540              0.0073940
      0.4156650             -1.0612590
      0.1830800              0.2490050
D    7   1.00
     72.7562000             -0.0000370
     10.4742000             -0.0157890
      6.2509000              0.0782970
      1.8018500             -0.3582960
      0.8884540             -0.4793250
      0.4156650              0.1884070
      0.1830800              0.5781450
D    1   1.00
      0.0742330              1.0000000
F    1   1.00
      1.3040000              1.0000000
F    1   1.00
      0.4337000              1.0000000
G    1   1.00
      1.0772000              1.0000000
****

PT     0
PT-ECP     5     60
h potential
  1
2      1.00000000             0.00000000
s-h potential
  2
2     14.60450000           429.64608700
2      7.21828700            73.15688400
p-h potential
  4
2     11.57716200            88.02291700
2     10.88384300           175.99819600
2      6.42440300            13.68227400
2      5.22419800            27.41465100
d-h potential
  4
2      7.69961000            43.55785200
2      7.55080800            65.36910800
2      3.96116400             7.01859600
2      3.87277700            11.39173300
f-h potential
  2
2      3.37986900            10.71022000
2      3.32625500            14.27812500
g-h potential
  2
2      5.45202000           -11.65174900
2      5.41258500           -14.37552500

Radii=UFF


