%chk=OPT_B3LYP_LANL2TZF_def2SVP_ONL_B3LYP_LANL2TZF_jorge-TZP_IEFPCM.chk
%mem=100Gb
%nproc=32
#p B3LYP/gen gfinput pseudo=read Integral(Grid=UltraFine,Acc2E=12) scf=maxcycle=200 Polar=(DCSHG) CPHF=RdFreq scrf=(iefpcm,read,solvent=n,n-DiMethylFormamide)

Primeira Hiperpolarizabilidade

0 1
Pt       1.0080980000     -0.0025540000     -0.0235640000                 
C       -1.0407780000      0.0066670000     -0.0737250000                 
N        1.3518720000     -2.0305880000     -0.0218510000                 
N        1.3719450000      2.0222460000     -0.0087140000                 
C        0.4287560000      2.9753990000     -0.0466020000                 
C        0.3987490000     -2.9736310000     -0.0636760000                 
C        2.7090590000      2.3704960000      0.0422860000                 
C        2.6854370000     -2.3928710000      0.0221480000                 
C        3.6128020000     -1.2583290000      0.0630320000                 
C        3.6250380000      1.2264840000      0.0741590000                 
C        5.0268870000      1.1846370000      0.1233140000                 
C        3.0723370000      3.7249560000      0.0587980000                 
C        2.0923450000      4.7097260000      0.0204170000                 
C        0.7449800000      4.3308390000     -0.0354510000                 
C        5.0149890000     -1.2306470000      0.1121940000                 
C        5.7236020000     -0.0265750000      0.1426580000                 
C        3.0349240000     -3.7511510000      0.0202080000                 
C        2.0447540000     -4.7254340000     -0.0249160000                 
H        4.0867550000     -4.0288990000      0.0519620000                 
C        0.7009420000     -4.3321870000     -0.0661800000                 
C        2.9585480000     -0.0125370000      0.0458840000                 
F        5.7212310000     -2.3699220000      0.1303920000                 
F        5.7443060000      2.3167180000      0.1522610000                 
H       -0.6280750000     -2.6082960000     -0.0985270000                 
C       -0.3984570000     -5.3622800000     -0.0868170000                 
H        2.3178680000     -5.7825060000     -0.0308330000                 
H       -0.6018770000      2.6210140000     -0.0832780000                 
C       -0.3410580000      5.3727710000     -0.1080140000                 
H        4.1266370000      3.9913400000      0.1029230000                 
H        2.3757440000      5.7639000000      0.0374570000                 
C       -2.2773880000      0.0100470000     -0.0606420000                 
C       -3.7078030000      0.0138890000     -0.0281940000                 
C       -4.4475230000      1.2181020000      0.0239990000                 
C       -4.4555800000     -1.1864830000     -0.0345840000                 
C       -5.8370910000      1.2295090000      0.0719270000                 
C       -5.8452350000     -1.1908520000      0.0125700000                 
C       -6.5854910000      0.0211570000      0.0702010000                 
N       -7.9618090000      0.0245300000      0.1227950000                 
H        6.8130070000     -0.0321260000      0.1803430000                 
F       -0.1641210000      6.3290150000      0.8211110000                 
F       -1.5619730000      4.8457880000      0.0784630000                 
F       -0.3511580000      5.9921340000     -1.3035740000                 
F       -1.6000010000     -4.8158540000     -0.3335420000                 
F       -0.4875750000     -6.0108890000      1.0897080000                 
F       -0.1759670000     -6.2973500000     -1.0277870000                 
H       -3.9105270000      2.1703660000      0.0298390000                 
H       -6.3468240000      2.1915000000      0.1129780000                 
H       -6.3615740000     -2.1502000000      0.0059560000                 
H       -3.9250140000     -2.1414780000     -0.0757180000                 
C       -8.6853820000      1.2805140000      0.1859560000                 
C       -8.6938440000     -1.2281450000      0.1241890000                 
H       -8.4916680000      1.9177460000     -0.6962290000                 
H       -8.4224040000      1.8687590000      1.0843160000                 
H       -9.7626690000      1.0779620000      0.2221940000                 
H       -8.4324840000     -1.8627180000      0.9908760000                 
H       -8.5067370000     -1.8212190000     -0.7896890000                 
H       -9.7696300000     -1.0204690000      0.1737300000                                                                                                         

1907nm

H     0
S    3   1.00
     34.87758369             0.0235323
      5.23397281             0.1767166
      1.18503342             0.7997511
S    1   1.00
      0.32833943             1.0000000
S    1   1.00
      0.11031918             1.0000000
P    1   1.00
      0.71884400             1.0000000
P    1   1.00
      0.35000000             1.0000000
D    1   1.00
      1.07506000             1.0000000
****
C     0
S    5   1.00
   7615.05999113             0.0017784
   1145.08684615             0.0136680
    261.91952431             0.0692908
     74.66834196             0.2631529
     24.40551202             0.7344482
S    2   1.00
      8.68679013             0.5885314
      3.23657623             0.4536170
S    1   1.00
      1.30179999             1.0000000
S    1   1.00
      0.52768873             1.0000000
S    1   1.00
      0.15694534             1.0000000
P    4   1.00
     34.50767936             0.0114038
      7.91304441             0.0765963
      2.36615458             0.3029741
      0.81172425             0.7264544
P    1   1.00
      0.31228882             1.0000000
P    1   1.00
      0.11400266             1.0000000
D    1   1.00
      1.15404900             1.0000000
D    1   1.00
      0.35112860             1.0000000
F    1   1.00
      0.81931200             1.0000000
****
N     0
S    5   1.00
  10259.65669438             0.0017931
   1542.36864597             0.0137833
    352.92239285             0.0698018
    100.80632697             0.2641269
     33.10725394             0.7328001
S    2   1.00
     11.88253928             0.5913763
      4.46790829             0.4499684
S    1   1.00
      1.19676433             1.0000000
S    1   1.00
      0.63915992             1.0000000
S    1   1.00
      0.19744232             1.0000000
P    4   1.00
     49.11376009             0.0114857
     11.32541037             0.0786357
      3.42249686             0.3087282
      1.17851570             0.7194875
P    1   1.00
      0.43449114             1.0000000
P    1   1.00
      0.15193747             1.0000000
D    1   1.00
      1.72917700             1.0000000
D    1   1.00
      0.50834600             1.0000000
F    1   1.00
      1.16358040             1.0000000
****
F     0
S    5   1.00
  16736.04332217             0.0018033
   2517.47266937             0.0138540
    575.95217890             0.0702102
    164.57735695             0.2653447
     54.27385737             0.7310817
S    2   1.00
     19.67931067             0.5966610
      7.49543072             0.4435267
S    1   1.00
      1.88568025             1.0000000
S    1   1.00
      0.97986789             1.0000000
S    1   1.00
      0.32385317             1.0000000
P    4   1.00
     80.49602312             0.0122694
     18.65399340             0.0854197
      5.70273743             0.3260431
      1.95547755             0.7002175
P    1   1.00
      0.68295355             1.0000000
P    1   1.00
      0.22044626             1.0000000
D    1   1.00
      3.18146999             1.0000000
D    1   1.00
      0.89032420             1.0000000
F    1   1.00
      1.99355999             1.0000000
****
Pt     0
S    1   1.00
      2.5470000              1.0000000
S    1   1.00
      1.6140000              1.0000000
S    1   1.00
      0.5167000              1.0000000
S    1   1.00
      0.2651000              1.0000000
S    1   1.00
      0.0580000              1.0000000
P    1   1.00
      2.9110000              1.0000000
P    1   1.00
      1.8360000              1.0000000
P    1   1.00
      0.5982000              1.0000000
P    1   1.00
      0.0996000              1.0000000
P    1   1.00
      0.0290000              1.0000000
D    1   1.00
      1.2430000              1.0000000
D    1   1.00
      0.4271000              1.0000000
D    1   1.00
      0.1370000              1.0000000
F    1   1.00
      0.9930000              1.0000000
****

PT     0
PT-ECP     4     60
g potential
  5
1    728.9394056             -0.1619268
2    320.6567800          -1320.2873852
2     52.8680174           -298.3178135
2     12.0280128            -87.5837065
2      3.5238913             -8.1493274
s-g potential
  6
0    409.4437358              2.7334218
1    274.5419231             59.7024329
2    127.5658570            891.4589550
2     32.9036631            368.4467656
2      5.0593880            238.0263090
2      4.1506556           -107.0556454
p-g potential
  4
0    466.1728892              1.8878568
1    120.7888259             76.0138629
2     36.4118791            343.5511116
2      5.6985408            119.4911786
d-g potential
  5
0    249.5650763              2.9343678
1    126.6678585             59.3306571
2     63.1430586            452.4445194
2     17.9059470            210.4769479
2      4.2239373             58.6254112
f-g potential
  5
0    121.8158799              3.9534253
1     60.8757030             53.8555182
2     31.4767147            247.4305133
2      9.8811751            127.8187976
2      2.7319874             15.3772046

Radii=UFF


