%chk=OPT_B3LYP_LANL2TZF_def2SVP_ONL_B3LYP_LANL2TZF_NLOV_IEFPCM.chk
%mem=100Gb
%nproc=32
#p B3LYP/gen gfinput pseudo=read Integral(Grid=UltraFine,Acc2E=12) scf=maxcycle=200 Polar=(DCSHG) CPHF=RdFreq scrf=(iefpcm,read,solvent=n,n-DiMethylFormamide)

Primeira Hiperpolarizabilidade

0 1
Pt       1.0080980000     -0.0025540000     -0.0235640000                 
C       -1.0407780000      0.0066670000     -0.0737250000                 
N        1.3518720000     -2.0305880000     -0.0218510000                 
N        1.3719450000      2.0222460000     -0.0087140000                 
C        0.4287560000      2.9753990000     -0.0466020000                 
C        0.3987490000     -2.9736310000     -0.0636760000                 
C        2.7090590000      2.3704960000      0.0422860000                 
C        2.6854370000     -2.3928710000      0.0221480000                 
C        3.6128020000     -1.2583290000      0.0630320000                 
C        3.6250380000      1.2264840000      0.0741590000                 
C        5.0268870000      1.1846370000      0.1233140000                 
C        3.0723370000      3.7249560000      0.0587980000                 
C        2.0923450000      4.7097260000      0.0204170000                 
C        0.7449800000      4.3308390000     -0.0354510000                 
C        5.0149890000     -1.2306470000      0.1121940000                 
C        5.7236020000     -0.0265750000      0.1426580000                 
C        3.0349240000     -3.7511510000      0.0202080000                 
C        2.0447540000     -4.7254340000     -0.0249160000                 
H        4.0867550000     -4.0288990000      0.0519620000                 
C        0.7009420000     -4.3321870000     -0.0661800000                 
C        2.9585480000     -0.0125370000      0.0458840000                 
F        5.7212310000     -2.3699220000      0.1303920000                 
F        5.7443060000      2.3167180000      0.1522610000                 
H       -0.6280750000     -2.6082960000     -0.0985270000                 
C       -0.3984570000     -5.3622800000     -0.0868170000                 
H        2.3178680000     -5.7825060000     -0.0308330000                 
H       -0.6018770000      2.6210140000     -0.0832780000                 
C       -0.3410580000      5.3727710000     -0.1080140000                 
H        4.1266370000      3.9913400000      0.1029230000                 
H        2.3757440000      5.7639000000      0.0374570000                 
C       -2.2773880000      0.0100470000     -0.0606420000                 
C       -3.7078030000      0.0138890000     -0.0281940000                 
C       -4.4475230000      1.2181020000      0.0239990000                 
C       -4.4555800000     -1.1864830000     -0.0345840000                 
C       -5.8370910000      1.2295090000      0.0719270000                 
C       -5.8452350000     -1.1908520000      0.0125700000                 
C       -6.5854910000      0.0211570000      0.0702010000                 
N       -7.9618090000      0.0245300000      0.1227950000                 
H        6.8130070000     -0.0321260000      0.1803430000                 
F       -0.1641210000      6.3290150000      0.8211110000                 
F       -1.5619730000      4.8457880000      0.0784630000                 
F       -0.3511580000      5.9921340000     -1.3035740000                 
F       -1.6000010000     -4.8158540000     -0.3335420000                 
F       -0.4875750000     -6.0108890000      1.0897080000                 
F       -0.1759670000     -6.2973500000     -1.0277870000                 
H       -3.9105270000      2.1703660000      0.0298390000                 
H       -6.3468240000      2.1915000000      0.1129780000                 
H       -6.3615740000     -2.1502000000      0.0059560000                 
H       -3.9250140000     -2.1414780000     -0.0757180000                 
C       -8.6853820000      1.2805140000      0.1859560000                 
C       -8.6938440000     -1.2281450000      0.1241890000                 
H       -8.4916680000      1.9177460000     -0.6962290000                 
H       -8.4224040000      1.8687590000      1.0843160000                 
H       -9.7626690000      1.0779620000      0.2221940000                 
H       -8.4324840000     -1.8627180000      0.9908760000                 
H       -8.5067370000     -1.8212190000     -0.7896890000                 
H       -9.7696300000     -1.0204690000      0.1737300000                                                                                                         

1907nm

H     0
S    3   1.00
     13.01070100000          0.0175900
      4.089700000000         0.0136300
      1.962257200000         0.1066300
S    3   1.00
      0.965800000000         0.0372100
      0.444537960000         0.4552300
      0.121949620000         0.5076800
P    2   1.00
      2.616630000000         0.0023400
      0.462800000000         0.5239200
****
C     0
S    4   1.00
   1238.401693800            0.0012100
    186.2900499200           0.0090900
     42.25117634600          0.0423900
     11.67655793200          0.1268100
S    3   1.00
      3.623200000000         0.5093300
      3.593050648200         0.3131700
      0.987470000000         0.1062900
S    3   1.00
      0.402451473630         0.4967600
      0.305400000000         0.1332900
      0.130901826680         0.3943700
P    4   1.00
      9.468097062100         0.0379000
      2.010354514200         0.1917400
      0.783900000000         0.1066100
      0.547710047070         0.3137800
P    4   1.00
      0.197330000000         0.5806300
      0.152686137950         0.3063800
      0.101660000000         0.2935100
      0.043029300000         0.0405300
D    2   1.00
      2.486000000000         0.0022600
      0.164120000000         0.0099700
****
N     0
S    4   1.00
   1712.841585300            0.0055400
    257.6481267700           0.0409900
     58.45824585300          0.1840000
     16.19836790500          0.4573900
S    3   1.00
      5.035732000000         0.4793200
      5.005260080900         0.3738400
      4.775700000000         0.4381800
S    3   1.00
      1.475900000000         0.0604000
      0.587318565710         0.0106400
      0.187645922530         0.0028700
P    4   1.00
     13.57147023300          0.0411200
      2.925737287400         0.2064600
      1.149209000000         0.1125900
      0.799277507540         0.3379600
P    4   1.00
      0.281150000000         0.6387600
      0.219543480340         0.3901400
      0.148770000000         0.2817400
      0.059277000000         0.0196600
D    2   1.00
      8.522000000000         0.0007400
      2.803000000000         0.0055000
****
F     0
S    4   1.00
   2894.832599000            0.0054400
    435.4193912000           0.0403200
     98.84332886600          0.1823600
     27.48519800100          0.4556200
S    3   1.00
      8.540549817100         0.6750300
      7.606400000000         0.0631800
      2.757004000000         0.0987900
S    3   1.00
      1.065457803800         0.4677200
      0.816992000000         0.1681100
      0.332473467480         0.4054000
P    4   1.00
     22.69663392400          0.0415600
      8.546200000000         0.0277700
      4.987233925700         0.1882700
      1.960299000000         0.1528700
P    4   1.00
      1.349161395400         0.3407400
      0.475750000000         0.2881400
      0.348298819770         0.1703900
      0.079310000000         0.0527200
D    2   1.00
      5.275600000000         0.0019200
      1.258140000000         0.0098600
****
Pt     0
S    1   1.00
      2.5470000              1.0000000
S    1   1.00
      1.6140000              1.0000000
S    1   1.00
      0.5167000              1.0000000
S    1   1.00
      0.2651000              1.0000000
S    1   1.00
      0.0580000              1.0000000
P    1   1.00
      2.9110000              1.0000000
P    1   1.00
      1.8360000              1.0000000
P    1   1.00
      0.5982000              1.0000000
P    1   1.00
      0.0996000              1.0000000
P    1   1.00
      0.0290000              1.0000000
D    1   1.00
      1.2430000              1.0000000
D    1   1.00
      0.4271000              1.0000000
D    1   1.00
      0.1370000              1.0000000
F    1   1.00
      0.9930000              1.0000000
****

PT     0
PT-ECP     4     60
g potential
  5
1    728.9394056             -0.1619268
2    320.6567800          -1320.2873852
2     52.8680174           -298.3178135
2     12.0280128            -87.5837065
2      3.5238913             -8.1493274
s-g potential
  6
0    409.4437358              2.7334218
1    274.5419231             59.7024329
2    127.5658570            891.4589550
2     32.9036631            368.4467656
2      5.0593880            238.0263090
2      4.1506556           -107.0556454
p-g potential
  4
0    466.1728892              1.8878568
1    120.7888259             76.0138629
2     36.4118791            343.5511116
2      5.6985408            119.4911786
d-g potential
  5
0    249.5650763              2.9343678
1    126.6678585             59.3306571
2     63.1430586            452.4445194
2     17.9059470            210.4769479
2      4.2239373             58.6254112
f-g potential
  5
0    121.8158799              3.9534253
1     60.8757030             53.8555182
2     31.4767147            247.4305133
2      9.8811751            127.8187976
2      2.7319874             15.3772046

Radii=UFF


